%%%%%%%%%%%%%%%%%%%%%%%%%%%%%%%%%%%%%%%%%%%%%%%%%%%%%%%%%%%%%%%%%%%%%%%%%%%%%%%%
%                                                                              %
% SU2 configuration file                                                       %
% Case description: Turbulent flow, ONERA M6, Newton-Krylov solver             %
% File Version 8.0.0 "Harrier"                                                 %
%                                                                              %
%%%%%%%%%%%%%%%%%%%%%%%%%%%%%%%%%%%%%%%%%%%%%%%%%%%%%%%%%%%%%%%%%%%%%%%%%%%%%%%%

SOLVER= RANS
KIND_TURB_MODEL= SA
RESTART_SOL= NO
%
MULTIZONE= YES
WRT_ZONE_CONV= YES
WRT_ZONE_HIST= YES
OBJECTIVE_FUNCTION= LIFT

% ------------------------- NEWTON-KRYLOV PARAMETERS --------------------------%
%
CFL_NUMBER= 25000
CFL_REDUCTION_TURB= 1
CFL_ADAPT= NO
%
DISCADJ_LIN_SOLVER= SMOOTHER
DISCADJ_LIN_PREC= ILU
LINEAR_SOLVER_ERROR= 1e-30
LINEAR_SOLVER_ITER= 10
LINEAR_SOLVER_SMOOTHER_RELAXATION= 0.2
LINEAR_SOLVER_RESTART_FREQUENCY= 50
%
MGLEVEL= 0
NEWTON_KRYLOV= YES
QUASI_NEWTON_NUM_SAMPLES= 1000

REF_DIMENSIONALIZATION= FREESTREAM_VEL_EQ_MACH

TIME_DISCRE_FLOW= EULER_IMPLICIT

% -------------------- COMPRESSIBLE FREE-STREAM DEFINITION --------------------%
%
MACH_NUMBER= 0.8395
AOA= 3.06
SIDESLIP_ANGLE= 0.0

FREESTREAM_TEMPERATURE= 288.15
REYNOLDS_NUMBER= 11.72E6
REYNOLDS_LENGTH= 0.64607

% ---- IDEAL GAS, POLYTROPIC, VAN DER WAALS AND PENG ROBINSON CONSTANTS -------%
%
FLUID_MODEL= STANDARD_AIR
GAMMA_VALUE= 1.4
GAS_CONSTANT= 287.058
ACENTRIC_FACTOR= 0.035

% --------------------------- VISCOSITY MODEL ---------------------------------%
%
VISCOSITY_MODEL= SUTHERLAND
MU_CONSTANT= 1.716E-5
MU_REF= 1.716E-5
MU_T_REF= 273.15
SUTHERLAND_CONSTANT= 110.4

% ---------------------- REFERENCE VALUE DEFINITION ---------------------------%
%
REF_ORIGIN_MOMENT_X = 0.25
REF_ORIGIN_MOMENT_Y = 0.00
REF_ORIGIN_MOMENT_Z = 0.00
REF_LENGTH= 0.64607
REF_AREA= 0

% -------------------- BOUNDARY CONDITION DEFINITION --------------------------%
%
MARKER_HEATFLUX= ( WING, 0.0 )
MARKER_FAR= ( FARFIELD )
MARKER_SYM= ( SYMMETRY )
MARKER_PLOTTING= ( WING )
MARKER_MONITORING= ( WING )

% -------------------- FLOW NUMERICAL METHOD DEFINITION -----------------------%
%
NUM_METHOD_GRAD= GREEN_GAUSS
CONV_NUM_METHOD_FLOW= JST
MUSCL_FLOW= NO
SLOPE_LIMITER_FLOW= VAN_ALBADA_EDGE

% -------------------- TURBULENT NUMERICAL METHOD DEFINITION ------------------%
%
CONV_NUM_METHOD_TURB= SCALAR_UPWIND
MUSCL_TURB= NO
TIME_DISCRE_TURB= EULER_IMPLICIT

% --------------------------- CONVERGENCE PARAMETERS --------------------------%
%
OUTER_ITER= 6
INNER_ITER= 50
CONV_RESIDUAL_MINVAL= -12

% ------------------------- INPUT/OUTPUT INFORMATION --------------------------%
%
MESH_FILENAME= mesh_ONERAM6_turb_hybrid_258969.su2
MESH_FORMAT= SU2
OUTPUT_FILES= (RESTART, PARAVIEW, SURFACE_PARAVIEW)
OUTPUT_WRT_FREQ= 5000
SCREEN_OUTPUT = (INNER_ITER, WALL_TIME, RMS_RES, SENS_AOA, LINSOL_RESIDUAL)
HISTORY_OUTPUT= (ITER, RMS_RES, SENSITIVITY, LINSOL)

WRT_AD_STATISTICS= YES
